<?xml version="1.0" encoding="UTF-8"?>

<!-- generated on 2026-03-16T21:44:43.706774+01:00 by Eclipse SUMO netedit 1.26.0
<neteditConfiguration xmlns:xsi="http://www.w3.org/2001/XMLSchema-instance" xsi:noNamespaceSchemaLocation="http://sumo.dlr.de/xsd/neteditConfiguration.xsd">

    <input>
        <sumocfg-file value="C:\Users\MOHO\Sumo\Basis_Scenario_U4_running\config\osm.sumocfg"/>
        <additional-files value="C:\Users\MOHO\Sumo\Basis_Scenario_U4_running\config\../network/osm_stops.add.xml"/>
        <route-files value="C:\Users\MOHO\Sumo\Basis_Scenario_U4_running\config\../routes/route_u4_long.rou.xml"/>
        <sumo-net-file value="C:\Users\MOHO\Sumo\Basis_Scenario_U4_running\config\../network/osm.net.xml.gz"/>
    </input>

    <output>
        <output-file value="C:\Users\MOHO\Sumo\Basis_Scenario_U4_running\config\../network/osm.net.xml.gz"/>
        <output.street-names value="true"/>
    </output>

    <processing>
        <geometry.min-radius.fix.railways value="false"/>
        <geometry.avoid-overlap value="false"/>
        <geometry.max-grade.fix value="false"/>
        <offset.disable-normalization value="true"/>
        <lefthand value="0"/>
    </processing>

    <junctions>
        <no-turnarounds value="true"/>
        <junctions.corner-detail value="5"/>
        <junctions.limit-turn-speed value="5.50"/>
        <rectangular-lane-cut value="0"/>
    </junctions>

    <pedestrian>
        <walkingareas value="0"/>
    </pedestrian>

</neteditConfiguration>
-->

<net version="1.20" junctionCornerDetail="5" limitTurnSpeed="5.50" avoidOverlap="0" xmlns:xsi="http://www.w3.org/2001/XMLSchema-instance" xsi:noNamespaceSchemaLocation="http://sumo.dlr.de/xsd/net_file.xsd">

    <location netOffset="-471090.73,-5549520.00" convBoundary="4023.75,972.52,11367.22,5018.94" origBoundary="8.586768,50.093215,8.778071,50.154212" projParameter="+proj=utm +zone=32 +ellps=WGS84 +datum=WGS84 +units=m +no_defs"/>

    <type id="railway.light_rail" priority="19" numLanes="1" speed="27.78" allow="rail_urban" oneway="1"/>
    <type id="railway.subway" priority="18" numLanes="1" speed="27.78" allow="subway" oneway="1"/>

    <edge id=":1071649603_0" function="internal" bidi=":1071649603_3">
        <lane id=":1071649603_0_0" index="0" allow="rail_urban subway" speed="27.78" length="2.98" shape="9102.24,4285.50 9100.00,4287.46"/>
    </edge>
    <edge id=":1071649603_1" function="internal" bidi=":1071649603_2">
        <lane id=":1071649603_1_0" index="0" allow="rail_urban" speed="27.78" length="2.98" shape="9102.21,4285.46 9100.00,4287.46"/>
    </edge>
    <edge id=":1071649603_2" function="internal" bidi=":1071649603_1">
        <lane id=":1071649603_2_0" index="0" allow="rail_urban" speed="27.78" length="2.98" shape="9100.00,4287.46 9102.21,4285.46"/>
    </edge>
    <edge id=":1071649603_3" function="internal" bidi=":1071649603_0">
        <lane id=":1071649603_3_0" index="0" allow="rail_urban subway" speed="27.78" length="2.98" shape="9100.00,4287.46 9102.24,4285.50"/>
    </edge>
    <edge id=":1071649624_0" function="internal" bidi=":1071649624_3">
        <lane id=":1071649624_0_0" index="0" allow="rail_urban" speed="27.78" length="28.99" shape="9116.25,4261.22 9098.86,4284.42"/>
    </edge>
    <edge id=":1071649624_1" function="internal" bidi=":1071649624_2">
        <lane id=":1071649624_1_0" index="0" allow="rail_urban" speed="27.78" length="29.15" shape="9113.43,4259.19 9110.65,4264.47 9106.46,4272.00 9102.12,4279.44 9098.86,4284.42"/>
    </edge>
    <edge id=":1071649624_2" function="internal" bidi=":1071649624_1">
        <lane id=":1071649624_2_0" index="0" allow="rail_urban" speed="27.78" length="29.15" shape="9098.86,4284.42 9102.12,4279.44 9106.46,4272.00 9110.65,4264.47 9113.43,4259.19"/>
    </edge>
    <edge id=":1071649624_3" function="internal" bidi=":1071649624_0">
        <lane id=":1071649624_3_0" index="0" allow="rail_urban" speed="27.78" length="28.99" shape="9098.86,4284.42 9116.25,4261.22"/>
    </edge>
    <edge id=":1071649646_0" function="internal" bidi=":1071649646_3">
        <lane id=":1071649646_0_0" index="0" allow="rail_urban subway" speed="27.78" length="30.35" shape="9200.32,4187.68 9196.80,4192.72 9191.41,4199.95 9185.93,4207.13 9182.15,4211.99"/>
    </edge>
    <edge id=":1071649646_1" function="internal" bidi=":1071649646_2">
        <lane id=":1071649646_1_0" index="0" allow="rail_urban" speed="27.78" length="30.51" shape="9197.56,4185.68 9194.73,4191.16 9190.25,4199.07 9185.58,4206.86 9182.15,4211.99"/>
    </edge>
    <edge id=":1071649646_2" function="internal" bidi=":1071649646_1">
        <lane id=":1071649646_2_0" index="0" allow="rail_urban" speed="27.78" length="30.51" shape="9182.15,4211.99 9185.58,4206.86 9190.25,4199.07 9194.73,4191.16 9197.56,4185.68"/>
    </edge>
    <edge id=":1071649646_3" function="internal" bidi=":1071649646_0">
        <lane id=":1071649646_3_0" index="0" allow="rail_urban subway" speed="27.78" length="30.35" shape="9182.15,4211.99 9185.93,4207.13 9191.41,4199.95 9196.80,4192.72 9200.32,4187.68"/>
    </edge>
    <edge id=":1071649661_0" function="internal" bidi=":1071649661_3">
        <lane id=":1071649661_0_0" index="0" allow="rail_urban" speed="27.78" length="17.64" shape="9534.18,3767.69 9516.92,3764.08"/>
    </edge>
    <edge id=":1071649661_1" function="internal" bidi=":1071649661_2">
        <lane id=":1071649661_1_0" index="0" allow="rail_urban" speed="27.78" length="27.24" shape="9544.10,3765.78 9516.92,3764.08"/>
    </edge>
    <edge id=":1071649661_2" function="internal" bidi=":1071649661_1">
        <lane id=":1071649661_2_0" index="0" allow="rail_urban" speed="27.78" length="27.24" shape="9516.92,3764.08 9544.10,3765.78"/>
    </edge>
    <edge id=":1071649661_3" function="internal" bidi=":1071649661_0">
        <lane id=":1071649661_3_0" index="0" allow="rail_urban" speed="27.78" length="17.64" shape="9516.92,3764.08 9521.02,3764.71 9525.56,3765.76 9530.10,3766.87 9534.18,3767.69"/>
    </edge>
    <edge id=":1071649675_0" function="internal" bidi=":1071649675_3">
        <lane id=":1071649675_0_0" index="0" allow="rail_urban" speed="27.78" length="14.01" shape="9210.09,4079.17 9206.76,4092.79"/>
    </edge>
    <edge id=":1071649675_1" function="internal" bidi=":1071649675_2">
        <lane id=":1071649675_1_0" index="0" allow="rail_urban" speed="27.78" length="22.14" shape="9210.09,4079.17 9208.55,4083.77 9206.15,4089.49 9203.54,4095.13 9201.40,4099.50"/>
    </edge>
    <edge id=":1071649675_2" function="internal" bidi=":1071649675_1">
        <lane id=":1071649675_2_0" index="0" allow="rail_urban" speed="27.78" length="22.14" shape="9201.40,4099.50 9203.54,4095.13 9206.15,4089.49 9208.55,4083.77 9210.09,4079.17"/>
    </edge>
    <edge id=":1071649675_3" function="internal" bidi=":1071649675_0">
        <lane id=":1071649675_3_0" index="0" allow="rail_urban" speed="27.78" length="14.01" shape="9206.76,4092.79 9210.09,4079.17"/>
    </edge>
    <edge id=":1071649684_0" function="internal" bidi=":1071649684_3">
        <lane id=":1071649684_0_0" index="0" allow="rail_urban" speed="27.78" length="29.42" shape="9376.33,3835.31 9373.10,3840.36 9368.66,3847.86 9364.36,3855.43 9361.55,3860.73"/>
    </edge>
    <edge id=":1071649684_1" function="internal" bidi=":1071649684_2">
        <lane id=":1071649684_1_0" index="0" allow="rail_urban" speed="27.78" length="29.25" shape="9376.33,3835.31 9358.73,3858.68"/>
    </edge>
    <edge id=":1071649684_2" function="internal" bidi=":1071649684_1">
        <lane id=":1071649684_2_0" index="0" allow="rail_urban" speed="27.78" length="29.25" shape="9358.73,3858.68 9376.33,3835.31"/>
    </edge>
    <edge id=":1071649684_3" function="internal" bidi=":1071649684_0">
        <lane id=":1071649684_3_0" index="0" allow="rail_urban" speed="27.78" length="29.42" shape="9361.55,3860.73 9364.36,3855.43 9368.66,3847.86 9373.10,3840.36 9376.33,3835.31"/>
    </edge>
    <edge id=":1071649694_0" function="internal" bidi=":1071649694_3">
        <lane id=":1071649694_0_0" index="0" allow="rail_urban subway" speed="27.78" length="64.01" shape="9032.82,4351.95 9024.05,4359.25 9008.14,4372.34 8992.16,4385.34 8983.20,4392.39"/>
    </edge>
    <edge id=":1071649694_1" function="internal" bidi=":1071649694_2">
        <lane id=":1071649694_1_0" index="0" allow="subway" speed="27.78" length="64.13" shape="9032.82,4351.95 9023.73,4358.87 9007.12,4371.11 8990.43,4383.26 8981.11,4389.87"/>
    </edge>
    <edge id=":1071649694_2" function="internal" bidi=":1071649694_1">
        <lane id=":1071649694_2_0" index="0" allow="subway" speed="27.78" length="64.13" shape="8981.11,4389.87 8990.43,4383.26 9007.12,4371.11 9023.73,4358.87 9032.82,4351.95"/>
    </edge>
    <edge id=":1071649694_3" function="internal" bidi=":1071649694_0">
        <lane id=":1071649694_3_0" index="0" allow="rail_urban subway" speed="27.78" length="64.01" shape="8983.20,4392.39 8992.16,4385.34 9008.14,4372.34 9024.05,4359.25 9032.82,4351.95"/>
    </edge>
    <edge id=":1071649718_0" function="internal" bidi=":1071649718_3">
        <lane id=":1071649718_0_0" index="0" allow="rail_urban" speed="27.78" length="29.42" shape="9132.90,4247.22 9129.55,4252.19 9124.36,4259.17 9119.05,4266.09 9115.38,4270.85"/>
    </edge>
    <edge id=":1071649718_1" function="internal" bidi=":1071649718_2">
        <lane id=":1071649718_1_0" index="0" allow="rail_urban" speed="27.78" length="29.60" shape="9130.20,4245.24 9127.39,4250.58 9123.11,4258.24 9118.67,4265.80 9115.38,4270.85"/>
    </edge>
    <edge id=":1071649718_2" function="internal" bidi=":1071649718_1">
        <lane id=":1071649718_2_0" index="0" allow="rail_urban" speed="27.78" length="29.60" shape="9115.38,4270.85 9118.67,4265.80 9123.11,4258.24 9127.39,4250.58 9130.20,4245.24"/>
    </edge>
    <edge id=":1071649718_3" function="internal" bidi=":1071649718_0">
        <lane id=":1071649718_3_0" index="0" allow="rail_urban" speed="27.78" length="29.42" shape="9115.38,4270.85 9119.05,4266.09 9124.36,4259.17 9129.55,4252.19 9132.90,4247.22"/>
    </edge>
    <edge id=":1071649760_0" function="internal">
        <lane id=":1071649760_0_0" index="0" allow="rail_urban" speed="0.10" length="0.10" shape="9326.92,3816.53 9326.92,3816.53"/>
    </edge>
    <edge id=":1071649775_0" function="internal" bidi=":1071649775_3">
        <lane id=":1071649775_0_0" index="0" allow="rail_urban" speed="27.78" length="2.96" shape="9341.03,3862.95 9338.85,3864.95"/>
    </edge>
    <edge id=":1071649775_1" function="internal" bidi=":1071649775_2">
        <lane id=":1071649775_1_0" index="0" allow="rail_urban" speed="27.78" length="2.96" shape="9341.03,3862.95 9338.81,3864.91"/>
    </edge>
    <edge id=":1071649775_2" function="internal" bidi=":1071649775_1">
        <lane id=":1071649775_2_0" index="0" allow="rail_urban" speed="27.78" length="2.96" shape="9338.81,3864.91 9341.03,3862.95"/>
    </edge>
    <edge id=":1071649775_3" function="internal" bidi=":1071649775_0">
        <lane id=":1071649775_3_0" index="0" allow="rail_urban" speed="27.78" length="2.96" shape="9338.85,3864.95 9341.03,3862.95"/>
    </edge>
    <edge id=":1071649781_0" function="internal" bidi=":1071649781_2">
        <lane id=":1071649781_0_0" index="0" allow="rail_urban subway" speed="27.78" length="21.82" shape="9076.82,4307.71 9073.32,4311.01 9069.09,4315.40 9064.99,4319.91 9061.85,4323.57"/>
    </edge>
    <edge id=":1071649781_1" function="internal">
        <lane id=":1071649781_1_0" index="0" allow="rail_urban" speed="27.78" length="27.86" shape="9055.82,4326.03 9076.82,4307.71"/>
    </edge>
    <edge id=":1071649781_2" function="internal" bidi=":1071649781_0">
        <lane id=":1071649781_2_0" index="0" allow="rail_urban subway" speed="27.78" length="21.82" shape="9061.85,4323.57 9064.99,4319.91 9069.09,4315.40 9073.32,4311.01 9076.82,4307.71"/>
    </edge>
    <edge id=":1071649782_0" function="internal" bidi=":1071649782_3">
        <lane id=":1071649782_0_0" index="0" allow="rail_urban" speed="27.78" length="26.38" shape="9256.41,3905.49 9254.09,3910.50 9251.14,3917.58 9248.40,3924.74 9246.70,3929.99"/>
    </edge>
    <edge id=":1071649782_1" function="internal" bidi=":1071649782_2">
        <lane id=":1071649782_1_0" index="0" allow="rail_urban" speed="27.78" length="26.67" shape="9253.16,3904.11 9246.70,3929.99"/>
    </edge>
    <edge id=":1071649782_2" function="internal" bidi=":1071649782_1">
        <lane id=":1071649782_2_0" index="0" allow="rail_urban" speed="27.78" length="26.67" shape="9246.70,3929.99 9253.16,3904.11"/>
    </edge>
    <edge id=":1071649782_3" function="internal" bidi=":1071649782_0">
        <lane id=":1071649782_3_0" index="0" allow="rail_urban" speed="27.78" length="26.38" shape="9246.70,3929.99 9248.40,3924.74 9251.14,3917.58 9254.09,3910.50 9256.41,3905.49"/>
    </edge>
    <edge id=":1071649818_0" function="internal" bidi=":1071649818_3">
        <lane id=":1071649818_0_0" index="0" allow="rail_urban" speed="27.78" length="28.87" shape="9149.11,4233.43 9131.67,4256.43"/>
    </edge>
    <edge id=":1071649818_1" function="internal" bidi=":1071649818_2">
        <lane id=":1071649818_1_0" index="0" allow="rail_urban" speed="27.78" length="29.02" shape="9146.27,4231.37 9143.49,4236.62 9139.29,4244.10 9134.93,4251.48 9131.67,4256.43"/>
    </edge>
    <edge id=":1071649818_2" function="internal" bidi=":1071649818_1">
        <lane id=":1071649818_2_0" index="0" allow="rail_urban" speed="27.78" length="29.02" shape="9131.67,4256.43 9134.93,4251.48 9139.29,4244.10 9143.49,4236.62 9146.27,4231.37"/>
    </edge>
    <edge id=":1071649818_3" function="internal" bidi=":1071649818_0">
        <lane id=":1071649818_3_0" index="0" allow="rail_urban" speed="27.78" length="28.87" shape="9131.67,4256.43 9149.11,4233.43"/>
    </edge>
    <edge id=":1071649854_0" function="internal" bidi=":1071649854_3">
        <lane id=":1071649854_0_0" index="0" allow="rail_urban" speed="27.78" length="31.61" shape="9342.66,3864.89 9339.14,3870.16 9334.30,3878.28 9329.61,3886.51 9326.58,3892.09"/>
    </edge>
    <edge id=":1071649854_1" function="internal" bidi=":1071649854_2">
        <lane id=":1071649854_1_0" index="0" allow="rail_urban" speed="27.78" length="31.47" shape="9342.66,3864.89 9338.76,3869.88 9333.06,3877.37 9327.46,3884.94 9323.88,3890.15"/>
    </edge>
    <edge id=":1071649854_2" function="internal" bidi=":1071649854_1">
        <lane id=":1071649854_2_0" index="0" allow="rail_urban" speed="27.78" length="31.47" shape="9323.88,3890.15 9327.46,3884.94 9333.06,3877.37 9338.76,3869.88 9342.66,3864.89"/>
    </edge>
    <edge id=":1071649854_3" function="internal" bidi=":1071649854_0">
        <lane id=":1071649854_3_0" index="0" allow="rail_urban" speed="27.78" length="31.61" shape="9326.58,3892.09 9329.61,3886.51 9334.30,3878.28 9339.14,3870.16 9342.66,3864.89"/>
    </edge>
    <edge id=":1071649857_0" function="internal" bidi=":1071649857_3">
        <lane id=":1071649857_0_0" index="0" allow="rail_urban" speed="27.78" length="2.92" shape="9470.53,3769.21 9467.76,3770.12"/>
    </edge>
    <edge id=":1071649857_1" function="internal" bidi=":1071649857_2">
        <lane id=":1071649857_1_0" index="0" allow="rail_urban" speed="27.78" length="2.92" shape="9470.53,3769.21 9467.73,3770.05"/>
    </edge>
    <edge id=":1071649857_2" function="internal" bidi=":1071649857_1">
        <lane id=":1071649857_2_0" index="0" allow="rail_urban" speed="27.78" length="2.92" shape="9467.73,3770.05 9470.53,3769.21"/>
    </edge>
    <edge id=":1071649857_3" function="internal" bidi=":1071649857_0">
        <lane id=":1071649857_3_0" index="0" allow="rail_urban" speed="27.78" length="2.92" shape="9467.76,3770.12 9470.53,3769.21"/>
    </edge>
    <edge id=":1071649900_0" function="internal" bidi=":1071649900_3">
        <lane id=":1071649900_0_0" index="0" allow="rail_urban" speed="27.78" length="28.72" shape="9325.81,3879.56 9322.59,3884.48 9318.30,3891.78 9314.18,3899.19 9311.44,3904.41"/>
    </edge>
    <edge id=":1071649900_1" function="internal" bidi=":1071649900_2">
        <lane id=":1071649900_1_0" index="0" allow="rail_urban" speed="27.78" length="28.64" shape="9325.81,3879.56 9308.61,3902.47"/>
    </edge>
    <edge id=":1071649900_2" function="internal" bidi=":1071649900_1">
        <lane id=":1071649900_2_0" index="0" allow="rail_urban" speed="27.78" length="28.64" shape="9308.61,3902.47 9325.81,3879.56"/>
    </edge>
    <edge id=":1071649900_3" function="internal" bidi=":1071649900_0">
        <lane id=":1071649900_3_0" index="0" allow="rail_urban" speed="27.78" length="28.72" shape="9311.44,3904.41 9314.18,3899.19 9318.30,3891.78 9322.59,3884.48 9325.81,3879.56"/>
    </edge>
    <edge id=":1071649906_0" function="internal" bidi=":1071649906_3">
        <lane id=":1071649906_0_0" index="0" allow="rail_urban" speed="27.78" length="29.99" shape="9274.86,3881.63 9270.81,3886.19 9265.21,3893.12 9259.84,3900.23 9256.50,3905.31"/>
    </edge>
    <edge id=":1071649906_1" function="internal" bidi=":1071649906_2">
        <lane id=":1071649906_1_0" index="0" allow="rail_urban" speed="27.78" length="29.89" shape="9271.94,3879.72 9268.62,3884.81 9264.00,3892.38 9259.48,3900.01 9256.50,3905.31"/>
    </edge>
    <edge id=":1071649906_2" function="internal" bidi=":1071649906_1">
        <lane id=":1071649906_2_0" index="0" allow="rail_urban" speed="27.78" length="29.89" shape="9256.50,3905.31 9259.48,3900.01 9264.00,3892.38 9268.62,3884.81 9271.94,3879.72"/>
    </edge>
    <edge id=":1071649906_3" function="internal" bidi=":1071649906_0">
        <lane id=":1071649906_3_0" index="0" allow="rail_urban" speed="27.78" length="29.99" shape="9256.50,3905.31 9259.84,3900.23 9265.21,3893.12 9270.81,3886.19 9274.86,3881.63"/>
    </edge>
    <edge id=":1071649913_0" function="internal" bidi=":1071649913_3">
        <lane id=":1071649913_0_0" index="0" allow="rail_urban subway" speed="27.78" length="2.90" shape="9083.72,4301.80 9081.52,4303.70"/>
    </edge>
    <edge id=":1071649913_1" function="internal" bidi=":1071649913_2">
        <lane id=":1071649913_1_0" index="0" allow="rail_urban" speed="27.78" length="2.90" shape="9083.67,4301.76 9081.52,4303.70"/>
    </edge>
    <edge id=":1071649913_2" function="internal" bidi=":1071649913_1">
        <lane id=":1071649913_2_0" index="0" allow="rail_urban" speed="27.78" length="2.90" shape="9081.52,4303.70 9083.67,4301.76"/>
    </edge>
    <edge id=":1071649913_3" function="internal" bidi=":1071649913_0">
        <lane id=":1071649913_3_0" index="0" allow="rail_urban subway" speed="27.78" length="2.90" shape="9081.52,4303.70 9083.72,4301.80"/>
    </edge>
    <edge id=":1071649923_0" function="internal" bidi=":1071649923_3">
        <lane id=":1071649923_0_0" index="0" allow="rail_urban" speed="27.78" length="25.41" shape="9583.11,3774.60 9577.83,3773.59 9570.61,3772.28 9563.38,3771.09 9558.05,3770.45"/>
    </edge>
    <edge id=":1071649923_1" function="internal" bidi=":1071649923_2">
        <lane id=":1071649923_1_0" index="0" allow="rail_urban subway" speed="27.78" length="28.59" shape="9586.61,3771.82 9558.05,3770.45"/>
    </edge>
    <edge id=":1071649923_2" function="internal" bidi=":1071649923_1">
        <lane id=":1071649923_2_0" index="0" allow="rail_urban subway" speed="27.78" length="28.59" shape="9558.05,3770.45 9586.61,3771.82"/>
    </edge>
    <edge id=":1071649923_3" function="internal" bidi=":1071649923_0">
        <lane id=":1071649923_3_0" index="0" allow="rail_urban" speed="27.78" length="25.41" shape="9558.05,3770.45 9563.38,3771.09 9570.61,3772.28 9577.83,3773.59 9583.11,3774.60"/>
    </edge>
    <edge id=":1071649927_0" function="internal" bidi=":1071649927_3">
        <lane id=":1071649927_0_0" index="0" allow="rail_urban subway" speed="27.78" length="2.97" shape="9152.80,4241.08 9150.58,4243.05"/>
    </edge>
    <edge id=":1071649927_1" function="internal" bidi=":1071649927_2">
        <lane id=":1071649927_1_0" index="0" allow="rail_urban" speed="27.78" length="2.97" shape="9152.77,4241.05 9150.58,4243.05"/>
    </edge>
    <edge id=":1071649927_2" function="internal" bidi=":1071649927_1">
        <lane id=":1071649927_2_0" index="0" allow="rail_urban" speed="27.78" length="2.97" shape="9150.58,4243.05 9152.77,4241.05"/>
    </edge>
    <edge id=":1071649927_3" function="internal" bidi=":1071649927_0">
        <lane id=":1071649927_3_0" index="0" allow="rail_urban subway" speed="27.78" length="2.97" shape="9150.58,4243.05 9152.80,4241.08"/>
    </edge>
    <edge id=":1071649935_0" function="internal" bidi=":1071649935_3">
        <lane id=":1071649935_0_0" index="0" allow="rail_urban" speed="27.78" length="31.09" shape="9168.00,4215.33 9164.53,4220.54 9159.11,4228.08 9153.58,4235.53 9149.79,4240.53"/>
    </edge>
    <edge id=":1071649935_1" function="internal" bidi=":1071649935_2">
        <lane id=":1071649935_1_0" index="0" allow="rail_urban" speed="27.78" length="31.27" shape="9165.29,4213.39 9162.38,4218.97 9157.87,4227.16 9153.20,4235.25 9149.79,4240.53"/>
    </edge>
    <edge id=":1071649935_2" function="internal" bidi=":1071649935_1">
        <lane id=":1071649935_2_0" index="0" allow="rail_urban" speed="27.78" length="31.27" shape="9149.79,4240.53 9153.20,4235.25 9157.87,4227.16 9162.38,4218.97 9165.29,4213.39"/>
    </edge>
    <edge id=":1071649935_3" function="internal" bidi=":1071649935_0">
        <lane id=":1071649935_3_0" index="0" allow="rail_urban" speed="27.78" length="31.09" shape="9149.79,4240.53 9153.58,4235.53 9159.11,4228.08 9164.53,4220.54 9168.00,4215.33"/>
    </edge>
    <edge id=":1071649939_0" function="internal">
        <lane id=":1071649939_0_0" index="0" allow="rail_urban" speed="0.10" length="0.10" shape="9657.82,3772.80 9657.82,3772.80"/>
    </edge>
    <edge id=":1071649940_0" function="internal" bidi=":1071649940_3">
        <lane id=":1071649940_0_0" index="0" allow="rail_urban" speed="27.78" length="2.96" shape="9323.15,3878.77 9320.97,3880.78"/>
    </edge>
    <edge id=":1071649940_1" function="internal" bidi=":1071649940_2">
        <lane id=":1071649940_1_0" index="0" allow="rail_urban" speed="27.78" length="2.96" shape="9323.15,3878.77 9320.93,3880.73"/>
    </edge>
    <edge id=":1071649940_2" function="internal" bidi=":1071649940_1">
        <lane id=":1071649940_2_0" index="0" allow="rail_urban" speed="27.78" length="2.96" shape="9320.93,3880.73 9323.15,3878.77"/>
    </edge>
    <edge id=":1071649940_3" function="internal" bidi=":1071649940_0">
        <lane id=":1071649940_3_0" index="0" allow="rail_urban" speed="27.78" length="2.96" shape="9320.97,3880.78 9323.15,3878.77"/>
    </edge>
    <edge id=":1071649943_0" function="internal" bidi=":1071649943_3">
        <lane id=":1071649943_0_0" index="0" allow="rail_urban" speed="27.78" length="22.28" shape="9215.42,4057.33 9210.13,4078.98"/>
    </edge>
    <edge id=":1071649943_1" function="internal" bidi=":1071649943_2">
        <lane id=":1071649943_1_0" index="0" allow="rail_urban" speed="27.78" length="23.22" shape="9215.42,4057.33 9213.84,4062.10 9211.36,4068.18 9208.69,4074.20 9206.53,4078.75"/>
    </edge>
    <edge id=":1071649943_2" function="internal" bidi=":1071649943_1">
        <lane id=":1071649943_2_0" index="0" allow="rail_urban" speed="27.78" length="23.22" shape="9206.53,4078.75 9208.69,4074.20 9211.36,4068.18 9213.84,4062.10 9215.42,4057.33"/>
    </edge>
    <edge id=":1071649943_3" function="internal" bidi=":1071649943_0">
        <lane id=":1071649943_3_0" index="0" allow="rail_urban" speed="27.78" length="22.28" shape="9210.13,4078.98 9215.42,4057.33"/>
    </edge>
    <edge id=":1071649944_0" function="internal" bidi=":1071649944_3">
        <lane id=":1071649944_0_0" index="0" allow="rail_urban" speed="27.78" length="2.82" shape="9373.40,3834.56 9371.32,3836.46"/>
    </edge>
    <edge id=":1071649944_1" function="internal" bidi=":1071649944_2">
        <lane id=":1071649944_1_0" index="0" allow="rail_urban" speed="27.78" length="2.83" shape="9373.40,3834.56 9371.26,3836.40"/>
    </edge>
    <edge id=":1071649944_2" function="internal" bidi=":1071649944_1">
        <lane id=":1071649944_2_0" index="0" allow="rail_urban" speed="27.78" length="2.83" shape="9371.26,3836.40 9373.40,3834.56"/>
    </edge>
    <edge id=":1071649944_3" function="internal" bidi=":1071649944_0">
        <lane id=":1071649944_3_0" index="0" allow="rail_urban" speed="27.78" length="2.82" shape="9371.32,3836.46 9373.40,3834.56"/>
    </edge>
    <edge id=":1071649974_0" function="internal" bidi=":1071649974_1">
        <lane id=":1071649974_0_0" index="0" allow="rail_urban" speed="27.78" length="3.00" shape="9153.29,4177.94 9151.97,4180.64"/>
    </edge>
    <edge id=":1071649974_1" function="internal" bidi=":1071649974_0">
        <lane id=":1071649974_1_0" index="0" allow="rail_urban" speed="27.78" length="3.00" shape="9151.97,4180.64 9153.29,4177.94"/>
    </edge>
    <edge id=":1071649974_2" function="internal">
        <lane id=":1071649974_2_0" index="0" allow="rail_urban" speed="27.78" length="3.00" shape="9151.95,4180.62 9153.29,4177.94"/>
    </edge>
    <edge id=":1071649986_0" function="internal" bidi=":1071649986_3">
        <lane id=":1071649986_0_0" index="0" allow="rail_urban" speed="27.78" length="2.87" shape="9357.30,3848.69 9355.22,3850.67"/>
    </edge>
    <edge id=":1071649986_1" function="internal" bidi=":1071649986_2">
        <lane id=":1071649986_1_0" index="0" allow="rail_urban" speed="27.78" length="2.88" shape="9357.30,3848.69 9355.14,3850.59"/>
    </edge>
    <edge id=":1071649986_2" function="internal" bidi=":1071649986_1">
        <lane id=":1071649986_2_0" index="0" allow="rail_urban" speed="27.78" length="2.88" shape="9355.14,3850.59 9357.30,3848.69"/>
    </edge>
    <edge id=":1071649986_3" function="internal" bidi=":1071649986_0">
        <lane id=":1071649986_3_0" index="0" allow="rail_urban" speed="27.78" length="2.87" shape="9355.22,3850.67 9357.30,3848.69"/>
    </edge>
    <edge id=":1071649995_0" function="internal" bidi=":1071649995_3">
        <lane id=":1071649995_0_0" index="0" allow="rail_urban" speed="27.78" length="32.40" shape="9261.38,3937.69 9257.89,3943.13 9252.98,3951.54 9248.26,3960.05 9245.34,3965.82"/>
    </edge>
    <edge id=":1071649995_1" function="internal" bidi=":1071649995_2">
        <lane id=":1071649995_1_0" index="0" allow="rail_urban" speed="27.78" length="32.29" shape="9258.14,3936.17 9245.34,3965.82"/>
    </edge>
    <edge id=":1071649995_2" function="internal" bidi=":1071649995_1">
        <lane id=":1071649995_2_0" index="0" allow="rail_urban" speed="27.78" length="32.29" shape="9245.34,3965.82 9258.14,3936.17"/>
    </edge>
    <edge id=":1071649995_3" function="internal" bidi=":1071649995_0">
        <lane id=":1071649995_3_0" index="0" allow="rail_urban" speed="27.78" length="32.40" shape="9245.34,3965.82 9248.26,3960.05 9252.98,3951.54 9257.89,3943.13 9261.38,3937.69"/>
    </edge>
    <edge id=":1071650000_0" function="internal" bidi=":1071650000_3">
        <lane id=":1071650000_0_0" index="0" allow="rail_urban" speed="27.78" length="32.44" shape="9358.27,3851.03 9354.78,3856.48 9349.89,3864.90 9345.15,3873.43 9342.14,3879.16"/>
    </edge>
    <edge id=":1071650000_1" function="internal" bidi=":1071650000_2">
        <lane id=":1071650000_1_0" index="0" allow="rail_urban" speed="27.78" length="32.29" shape="9358.27,3851.03 9354.38,3856.19 9348.60,3863.98 9342.95,3871.85 9339.46,3877.26"/>
    </edge>
    <edge id=":1071650000_2" function="internal" bidi=":1071650000_1">
        <lane id=":1071650000_2_0" index="0" allow="rail_urban" speed="27.78" length="32.29" shape="9339.46,3877.26 9342.95,3871.85 9348.60,3863.98 9354.38,3856.19 9358.27,3851.03"/>
    </edge>
    <edge id=":1071650000_3" function="internal" bidi=":1071650000_0">
        <lane id=":1071650000_3_0" index="0" allow="rail_urban" speed="27.78" length="32.44" shape="9342.14,3879.16 9345.15,3873.43 9349.89,3864.90 9354.78,3856.48 9358.27,3851.03"/>
    </edge>
    <edge id=":1071650002_0" function="internal" bidi=":1071650002_3">
        <lane id=":1071650002_0_0" index="0" allow="rail_urban subway" speed="27.78" length="28.59" shape="9553.11,3770.14 9524.57,3768.40"/>
    </edge>
    <edge id=":1071650002_1" function="internal" bidi=":1071650002_2">
        <lane id=":1071650002_1_0" index="0" allow="rail_urban" speed="27.78" length="18.89" shape="9553.11,3770.14 9534.38,3767.72"/>
    </edge>
    <edge id=":1071650002_2" function="internal" bidi=":1071650002_1">
        <lane id=":1071650002_2_0" index="0" allow="rail_urban" speed="27.78" length="18.89" shape="9534.38,3767.72 9553.11,3770.14"/>
    </edge>
    <edge id=":1071650002_3" function="internal" bidi=":1071650002_0">
        <lane id=":1071650002_3_0" index="0" allow="rail_urban subway" speed="27.78" length="28.59" shape="9524.57,3768.40 9553.11,3770.14"/>
    </edge>
    <edge id=":1071650019_0" function="internal" bidi=":1071650019_3">
        <lane id=":1071650019_0_0" index="0" allow="rail_urban subway" speed="27.78" length="27.83" shape="9067.96,4321.50 9046.99,4339.80"/>
    </edge>
    <edge id=":1071650019_1" function="internal" bidi=":1071650019_2">
        <lane id=":1071650019_1_0" index="0" allow="rail_urban subway" speed="27.78" length="21.82" shape="9061.73,4323.73 9058.63,4327.42 9054.60,4332.00 9050.45,4336.46 9046.99,4339.80"/>
    </edge>
    <edge id=":1071650019_2" function="internal" bidi=":1071650019_1">
        <lane id=":1071650019_2_0" index="0" allow="rail_urban subway" speed="27.78" length="21.82" shape="9046.99,4339.80 9050.45,4336.46 9054.60,4332.00 9058.63,4327.42 9061.73,4323.73"/>
    </edge>
    <edge id=":1071650019_3" function="internal" bidi=":1071650019_0">
        <lane id=":1071650019_3_0" index="0" allow="rail_urban subway" speed="27.78" length="27.83" shape="9046.99,4339.80 9067.96,4321.50"/>
    </edge>
    <edge id=":1071650031_0" function="internal" bidi=":1071650031_3">